# Note: Crystal region of isotactic polypropylene (alpha phase)
# Common_name: Perfect crystal

#----------------------------------------------------------------------

data_Crystal

_chemical_name_common                  'i-propylene-alpha                     '
_cell_length_a                         6.32077
_cell_length_b                         18.64411
_cell_length_c                         6.50876
_cell_angle_alpha                      90
_cell_angle_beta                       99.91564
_cell_angle_gamma                      90
_space_group_name_H-M_alt              'P 1'
_space_group_IT_number                 1

loop_
_space_group_symop_operation_xyz
   'x, y, z'

loop_
   _atom_site_label
   _atom_site_occupancy
   _atom_site_fract_x
   _atom_site_fract_y
   _atom_site_fract_z
   _atom_site_adp_type
   _atom_site_B_iso_or_equiv
   _atom_site_type_symbol
   C1         1.0     0.677344      0.072483      0.035897     Biso  1.000000 C
   C2         1.0     0.677344      0.927517      0.535897     Biso  1.000000 C
   C3         1.0     0.177344      0.572483      0.035897     Biso  1.000000 C
   C4         1.0     0.177344      0.427517      0.535897     Biso  1.000000 C
   C5         1.0     0.904017      0.095349      0.140173     Biso  1.000000 C
   C6         1.0     0.904017      0.904651      0.640173     Biso  1.000000 C
   C7         1.0     0.404017      0.595349      0.140173     Biso  1.000000 C
   C8         1.0     0.404017      0.404651      0.640173     Biso  1.000000 C
   C9         1.0     0.914063      0.096988      0.378850     Biso  1.000000 C
   C10        1.0     0.914063      0.903012      0.878850     Biso  1.000000 C
   C11        1.0     0.414063      0.596988      0.378850     Biso  1.000000 C
   C12        1.0     0.414063      0.403012      0.878850     Biso  1.000000 C
   C13        1.0     0.317076      0.073424      0.469341     Biso  1.000000 C
   C14        1.0     0.317076      0.926576      0.969341     Biso  1.000000 C
   C15        1.0     0.817076      0.573424      0.469341     Biso  1.000000 C
   C16        1.0     0.817076      0.426576      0.969341     Biso  1.000000 C
   C17        1.0     0.129054      0.120533      0.510680     Biso  1.000000 C
   C18        1.0     0.129054      0.879467      0.010680     Biso  1.000000 C
   C19        1.0     0.629054      0.620533      0.510680     Biso  1.000000 C
   C20        1.0     0.629054      0.379467      0.010680     Biso  1.000000 C
   C21        1.0     0.114407      0.118938      0.744757     Biso  1.000000 C
   C22        1.0     0.114407      0.881062      0.244757     Biso  1.000000 C
   C23        1.0     0.614407      0.618938      0.744757     Biso  1.000000 C
   C24        1.0     0.614407      0.381062      0.244757     Biso  1.000000 C
   C25        1.0     0.018804      0.250506      0.766310     Biso  1.000000 C
   C26        1.0     0.018804      0.749494      0.266310     Biso  1.000000 C
   C27        1.0     0.518804      0.750506      0.766310     Biso  1.000000 C
   C28        1.0     0.518804      0.249494      0.266310     Biso  1.000000 C
   C29        1.0     0.959283      0.173534      0.818379     Biso  1.000000 C
   C30        1.0     0.959283      0.826466      0.318379     Biso  1.000000 C
   C31        1.0     0.459283      0.673534      0.818379     Biso  1.000000 C
   C32        1.0     0.459283      0.326466      0.318379     Biso  1.000000 C
   C33        1.0     0.969481      0.168014      0.056497     Biso  1.000000 C
   C34        1.0     0.969481      0.831986      0.556497     Biso  1.000000 C
   C35        1.0     0.469481      0.668014      0.056497     Biso  1.000000 C
   C36        1.0     0.469481      0.331986      0.556497     Biso  1.000000 C
   H1         1.0     0.629800      0.023277      0.106793     Biso  1.000000 H
   H2         1.0     0.629800      0.976723      0.606793     Biso  1.000000 H
   H3         1.0     0.129800      0.523277      0.106793     Biso  1.000000 H
   H4         1.0     0.129800      0.476723      0.606793     Biso  1.000000 H
   H5         1.0     0.665881      0.062577      0.868748     Biso  1.000000 H
   H6         1.0     0.665881      0.937423      0.368748     Biso  1.000000 H
   H7         1.0     0.165881      0.562577      0.868748     Biso  1.000000 H
   H8         1.0     0.165881      0.437423      0.368748     Biso  1.000000 H
   H9         1.0     0.560287      0.114115      0.055899     Biso  1.000000 H
   H10        1.0     0.560287      0.885885      0.555899     Biso  1.000000 H
   H11        1.0     0.060287      0.614115      0.055899     Biso  1.000000 H
   H12        1.0     0.060287      0.385885      0.555899     Biso  1.000000 H
   H13        1.0     0.017228      0.054268      0.105625     Biso  1.000000 H
   H14        1.0     0.017228      0.945732      0.605625     Biso  1.000000 H
   H15        1.0     0.517228      0.554268      0.105625     Biso  1.000000 H
   H16        1.0     0.517228      0.445732      0.605625     Biso  1.000000 H
   H17        1.0     0.875882      0.043195      0.429942     Biso  1.000000 H
   H18        1.0     0.875882      0.956805      0.929942     Biso  1.000000 H
   H19        1.0     0.375882      0.543195      0.429942     Biso  1.000000 H
   H20        1.0     0.375882      0.456805      0.929942     Biso  1.000000 H
   H21        1.0     0.785449      0.132010      0.413438     Biso  1.000000 H
   H22        1.0     0.785449      0.867990      0.913438     Biso  1.000000 H
   H23        1.0     0.285449      0.632010      0.413438     Biso  1.000000 H
   H24        1.0     0.285449      0.367990      0.913438     Biso  1.000000 H
   H25        1.0     0.337276      0.074500      0.305731     Biso  1.000000 H
   H26        1.0     0.337276      0.925500      0.805731     Biso  1.000000 H
   H27        1.0     0.837276      0.574500      0.305731     Biso  1.000000 H
   H28        1.0     0.837276      0.425500      0.805731     Biso  1.000000 H
   H29        1.0     0.291751      0.017508      0.510805     Biso  1.000000 H
   H30        1.0     0.291751      0.982492      0.010805     Biso  1.000000 H
   H31        1.0     0.791751      0.517508      0.510805     Biso  1.000000 H
   H32        1.0     0.791751      0.482492      0.010805     Biso  1.000000 H
   H33        1.0     0.468343      0.091595      0.563016     Biso  1.000000 H
   H34        1.0     0.468343      0.908405      0.063016     Biso  1.000000 H
   H35        1.0     0.968343      0.591595      0.563016     Biso  1.000000 H
   H36        1.0     0.968343      0.408405      0.063016     Biso  1.000000 H
   H37        1.0     0.162841      0.175845      0.469229     Biso  1.000000 H
   H38        1.0     0.162841      0.824155      0.969229     Biso  1.000000 H
   H39        1.0     0.662841      0.675845      0.469229     Biso  1.000000 H
   H40        1.0     0.662841      0.324155      0.969229     Biso  1.000000 H
   H41        1.0     0.274985      0.129199      0.835382     Biso  1.000000 H
   H42        1.0     0.274985      0.870801      0.335382     Biso  1.000000 H
   H43        1.0     0.774985      0.629199      0.835382     Biso  1.000000 H
   H44        1.0     0.774985      0.370801      0.335382     Biso  1.000000 H
   H45        1.0     0.071156      0.064243      0.784467     Biso  1.000000 H
   H46        1.0     0.071156      0.935757      0.284467     Biso  1.000000 H
   H47        1.0     0.571156      0.564243      0.784467     Biso  1.000000 H
   H48        1.0     0.571156      0.435757      0.284467     Biso  1.000000 H
   H49        1.0     0.993461      0.261019      0.598317     Biso  1.000000 H
   H50        1.0     0.993461      0.738981      0.098317     Biso  1.000000 H
   H51        1.0     0.493461      0.761019      0.598317     Biso  1.000000 H
   H52        1.0     0.493461      0.238981      0.098317     Biso  1.000000 H
   H53        1.0     0.188467      0.260114      0.829123     Biso  1.000000 H
   H54        1.0     0.188467      0.739886      0.329123     Biso  1.000000 H
   H55        1.0     0.688467      0.760114      0.829123     Biso  1.000000 H
   H56        1.0     0.688467      0.239886      0.329123     Biso  1.000000 H
   H57        1.0     0.925075      0.289674      0.837397     Biso  1.000000 H
   H58        1.0     0.925075      0.710326      0.337397     Biso  1.000000 H
   H59        1.0     0.425075      0.789674      0.837397     Biso  1.000000 H
   H60        1.0     0.425075      0.210326      0.337397     Biso  1.000000 H
   H61        1.0     0.793793      0.162875      0.740227     Biso  1.000000 H
   H62        1.0     0.793793      0.837125      0.240227     Biso  1.000000 H
   H63        1.0     0.293793      0.662875      0.740227     Biso  1.000000 H
   H64        1.0     0.293793      0.337125      0.240227     Biso  1.000000 H
   H65        1.0     0.134244      0.180933      0.130001     Biso  1.000000 H
   H66        1.0     0.134244      0.819067      0.630001     Biso  1.000000 H
   H67        1.0     0.634244      0.680933      0.130001     Biso  1.000000 H
   H68        1.0     0.634244      0.319067      0.630001     Biso  1.000000 H
   H69        1.0     0.867623      0.210183      0.104817     Biso  1.000000 H
   H70        1.0     0.867623      0.789817      0.604817     Biso  1.000000 H
   H71        1.0     0.367623      0.710183      0.104817     Biso  1.000000 H
   H72        1.0     0.367623      0.289817      0.604817     Biso  1.000000 H

# Number_of_total_atoms: 108
# Number_of_atom_type: 2
# Name_of_each_atom: C H 
# Number_of_each_atom: 36 72
# Created_by: Lihua Chen (lihua.chen@mse.gatech.edu)
# Tool: VASP
# K-points: 4 1 4
# Pseudopotential: PBE-HSE06
# Material_class: MC_Pol
# Geometry_class: GC_cry
# Bandgap_(eV): 7.86

