# Note: Crystal region of syndiotactic polypropylene 
# Common_name: Perfect crystal

#----------------------------------------------------------------------

data_Crystal

_chemical_name_common                  'syndiotactic polypropylene             '
_cell_length_a                         5.07529
_cell_length_b                         7.15694
_cell_length_c                         13.86176
_cell_angle_alpha                      90.06639
_cell_angle_beta                       90.01417
_cell_angle_gamma                      90.00414
_space_group_name_H-M_alt              'P 1'
_space_group_IT_number                 1

loop_
_space_group_symop_operation_xyz
   'x, y, z'

loop_
   _atom_site_label
   _atom_site_occupancy
   _atom_site_fract_x
   _atom_site_fract_y
   _atom_site_fract_z
   _atom_site_adp_type
   _atom_site_B_iso_or_equiv
   _atom_site_type_symbol
   C1         1.0     0.566993      0.149730      0.400011     Biso  1.000000 C
   C2         1.0     0.533144      0.649745      0.399908     Biso  1.000000 C
   C3         1.0     0.067390      0.148833      0.899688     Biso  1.000000 C
   C4         1.0     0.033484      0.648734      0.900177     Biso  1.000000 C
   C5         1.0     0.728459      0.267420      0.472005     Biso  1.000000 C
   C6         1.0     0.371657      0.767091      0.327927     Biso  1.000000 C
   C7         1.0     0.728485      0.032176      0.328001     Biso  1.000000 C
   C8         1.0     0.371620      0.532480      0.471893     Biso  1.000000 C
   C9         1.0     0.228663      0.266090      0.971932     Biso  1.000000 C
   C10        1.0     0.872186      0.765769      0.827999     Biso  1.000000 C
   C11        1.0     0.229081      0.030805      0.827947     Biso  1.000000 C
   C12        1.0     0.871818      0.531140      0.971973     Biso  1.000000 C
   C13        1.0     0.886857      0.142198      0.541186     Biso  1.000000 C
   C14        1.0     0.213210      0.641489      0.258800     Biso  1.000000 C
   C15        1.0     0.886798      0.157544      0.258897     Biso  1.000000 C
   C16        1.0     0.213251      0.658185      0.540955     Biso  1.000000 C
   C17        1.0     0.386580      0.140482      0.041066     Biso  1.000000 C
   C18        1.0     0.714018      0.639886      0.758925     Biso  1.000000 C
   C19        1.0     0.387931      0.155746      0.758800     Biso  1.000000 C
   C20        1.0     0.713118      0.656542      0.041083     Biso  1.000000 C
   C21        1.0     0.550066      0.400173      0.530788     Biso  1.000000 C
   C22        1.0     0.550072      0.899519      0.269122     Biso  1.000000 C
   C23        1.0     0.050048      0.398571      0.030792     Biso  1.000000 C
   C24        1.0     0.050940      0.897872      0.769128     Biso  1.000000 C
   H1         1.0     0.924474      0.314095      0.078063     Biso  1.000000 H
   H2         1.0     0.175259      0.482910      0.078372     Biso  1.000000 H
   H3         1.0     0.369670      0.351624      0.931790     Biso  1.000000 H
   H4         1.0     0.731317      0.445596      0.931484     Biso  1.000000 H
   H5         1.0     0.475435      0.223011      0.099146     Biso  1.000000 H
   H6         1.0     0.257383      0.035976      0.074438     Biso  1.000000 H
   H7         1.0     0.545734      0.065692      0.004554     Biso  1.000000 H
   H8         1.0     0.936814      0.058382      0.942088     Biso  1.000000 H
   H9         1.0     0.938639      0.239936      0.856900     Biso  1.000000 H
   H10        1.0     0.163784      0.558006      0.857721     Biso  1.000000 H
   H11        1.0     0.162505      0.739928      0.942919     Biso  1.000000 H
   H12        1.0     0.623553      0.573900      0.098861     Biso  1.000000 H
   H13        1.0     0.554442      0.731444      0.004419     Biso  1.000000 H
   H14        1.0     0.841943      0.760950      0.074863     Biso  1.000000 H
   H15        1.0     0.369509      0.945482      0.868489     Biso  1.000000 H
   H16        1.0     0.731361      0.851537      0.868179     Biso  1.000000 H
   H17        1.0     0.176663      0.813053      0.721995     Biso  1.000000 H
   H18        1.0     0.925936      0.981881      0.721410     Biso  1.000000 H
   H19        1.0     0.843078      0.535228      0.725494     Biso  1.000000 H
   H20        1.0     0.624967      0.722155      0.700890     Biso  1.000000 H
   H21        1.0     0.554988      0.565239      0.795506     Biso  1.000000 H
   H22        1.0     0.546504      0.230941      0.795462     Biso  1.000000 H
   H23        1.0     0.259165      0.259864      0.724893     Biso  1.000000 H
   H24        1.0     0.477653      0.072694      0.701115     Biso  1.000000 H
   H25        1.0     0.437407      0.058900      0.442600     Biso  1.000000 H
   H26        1.0     0.437247      0.240477      0.357424     Biso  1.000000 H
   H27        1.0     0.869176      0.352837      0.431666     Biso  1.000000 H
   H28        1.0     0.869244      0.946740      0.368329     Biso  1.000000 H
   H29        1.0     0.675462      0.815045      0.221692     Biso  1.000000 H
   H30        1.0     0.424672      0.983833      0.221699     Biso  1.000000 H
   H31        1.0     0.230995      0.852707      0.368269     Biso  1.000000 H
   H32        1.0     0.757931      0.037783      0.574759     Biso  1.000000 H
   H33        1.0     0.045880      0.067333      0.504640     Biso  1.000000 H
   H34        1.0     0.975938      0.225003      0.599120     Biso  1.000000 H
   H35        1.0     0.675548      0.484799      0.578127     Biso  1.000000 H
   H36        1.0     0.424763      0.315983      0.578300     Biso  1.000000 H
   H37        1.0     0.054530      0.733061      0.504300     Biso  1.000000 H
   H38        1.0     0.123772      0.575749      0.598824     Biso  1.000000 H
   H39        1.0     0.342282      0.762639      0.574604     Biso  1.000000 H
   H40        1.0     0.230919      0.446825      0.431557     Biso  1.000000 H
   H41        1.0     0.662747      0.558759      0.357314     Biso  1.000000 H
   H42        1.0     0.662863      0.740686      0.442511     Biso  1.000000 H
   H43        1.0     0.342144      0.536962      0.225203     Biso  1.000000 H
   H44        1.0     0.123959      0.723978      0.200887     Biso  1.000000 H
   H45        1.0     0.054311      0.566719      0.295390     Biso  1.000000 H
   H46        1.0     0.757761      0.261829      0.225252     Biso  1.000000 H
   H47        1.0     0.976170      0.074814      0.201017     Biso  1.000000 H
   H48        1.0     0.045596      0.232584      0.295515     Biso  1.000000 H

# Number_of_total_atoms: 72
# Number_of_atom_type: 2
# Name_of_each_atom: C H 
# Number_of_each_atom: 24 48
# Created_by: Lihua Chen (lihua.chen@mse.gatech.edu)
# Tool: VASP
# K-points: 6 4 2
# Pseudopotential: PBE-HSE06
# Material_class: MC_Pol
# Geometry_class: GC_cry
# Bandgap_(eV): 7.54

