#======================================================================

# Note: Crystal region of isotactic polystyrene
# Common_name: Perfect crystal

#----------------------------------------------------------------------

data_Crystal

_chemical_name_common                  'i-styrene                             '
_cell_length_a                         20.83016
_cell_length_b                         20.83016
_cell_length_c                         6.55465
_cell_angle_alpha                      90
_cell_angle_beta                       90
_cell_angle_gamma                      120
_space_group_name_H-M_alt              'P 1'
_space_group_IT_number                 1

loop_
_space_group_symop_operation_xyz
   'x, y, z'

loop_
   _atom_site_label
   _atom_site_occupancy
   _atom_site_fract_x
   _atom_site_fract_y
   _atom_site_fract_z
   _atom_site_adp_type
   _atom_site_B_iso_or_equiv
   _atom_site_type_symbol
   C1         1.0     0.302852      0.291774      0.667273     Biso  1.000000 C
   C2         1.0     0.708226      0.011078      0.667273     Biso  1.000000 C
   C3         1.0     0.988922      0.697148      0.667273     Biso  1.000000 C
   C4         1.0     0.708226      0.697148      0.167273     Biso  1.000000 C
   C5         1.0     0.988922      0.291774      0.167273     Biso  1.000000 C
   C6         1.0     0.302852      0.011078      0.167273     Biso  1.000000 C
   C7         1.0     0.969519      0.625108      0.000606     Biso  1.000000 C
   C8         1.0     0.374892      0.344411      0.000606     Biso  1.000000 C
   C9         1.0     0.655589      0.030481      0.000606     Biso  1.000000 C
   C10        1.0     0.374892      0.030481      0.500606     Biso  1.000000 C
   C11        1.0     0.655589      0.625108      0.500606     Biso  1.000000 C
   C12        1.0     0.969519      0.344411      0.500606     Biso  1.000000 C
   C13        1.0     0.636186      0.958441      0.333939     Biso  1.000000 C
   C14        1.0     0.041559      0.677745      0.333939     Biso  1.000000 C
   C15        1.0     0.322255      0.363814      0.333939     Biso  1.000000 C
   C16        1.0     0.041559      0.363814      0.833939     Biso  1.000000 C
   C17        1.0     0.322255      0.958441      0.833939     Biso  1.000000 C
   C18        1.0     0.636186      0.677745      0.833939     Biso  1.000000 C
   C19        1.0     0.233825      0.225068      0.348791     Biso  1.000000 C
   C20        1.0     0.774932      0.008757      0.348791     Biso  1.000000 C
   C21        1.0     0.991243      0.766175      0.348791     Biso  1.000000 C
   C22        1.0     0.774932      0.766175      0.848791     Biso  1.000000 C
   C23        1.0     0.991243      0.225068      0.848791     Biso  1.000000 C
   C24        1.0     0.233825      0.008757      0.848791     Biso  1.000000 C
   C25        1.0     0.900491      0.558401      0.682125     Biso  1.000000 C
   C26        1.0     0.441599      0.342090      0.682125     Biso  1.000000 C
   C27        1.0     0.657910      0.099509      0.682125     Biso  1.000000 C
   C28        1.0     0.441599      0.099509      0.182125     Biso  1.000000 C
   C29        1.0     0.657910      0.558401      0.182125     Biso  1.000000 C
   C30        1.0     0.900491      0.342090      0.182125     Biso  1.000000 C
   C31        1.0     0.567158      0.891735      0.015458     Biso  1.000000 C
   C32        1.0     0.108265      0.675423      0.015458     Biso  1.000000 C
   C33        1.0     0.324577      0.432842      0.015458     Biso  1.000000 C
   C34        1.0     0.108265      0.432842      0.515458     Biso  1.000000 C
   C35        1.0     0.324577      0.891735      0.515458     Biso  1.000000 C
   C36        1.0     0.567158      0.675423      0.515458     Biso  1.000000 C
   C37        1.0     0.305377      0.289035      0.431083     Biso  1.000000 C
   C38        1.0     0.710965      0.016342      0.431083     Biso  1.000000 C
   C39        1.0     0.983658      0.694623      0.431083     Biso  1.000000 C
   C40        1.0     0.710965      0.694623      0.931083     Biso  1.000000 C
   C41        1.0     0.983658      0.289035      0.931083     Biso  1.000000 C
   C42        1.0     0.305377      0.016342      0.931083     Biso  1.000000 C
   C43        1.0     0.972044      0.622368      0.764416     Biso  1.000000 C
   C44        1.0     0.377632      0.349676      0.764416     Biso  1.000000 C
   C45        1.0     0.650324      0.027956      0.764416     Biso  1.000000 C
   C46        1.0     0.377632      0.027956      0.264416     Biso  1.000000 C
   C47        1.0     0.650324      0.622368      0.264416     Biso  1.000000 C
   C48        1.0     0.972044      0.349676      0.264416     Biso  1.000000 C
   C49        1.0     0.638711      0.955702      0.097750     Biso  1.000000 C
   C50        1.0     0.044298      0.683009      0.097750     Biso  1.000000 C
   C51        1.0     0.316991      0.361289      0.097750     Biso  1.000000 C
   C52        1.0     0.044298      0.361289      0.597750     Biso  1.000000 C
   C53        1.0     0.316991      0.955702      0.597750     Biso  1.000000 C
   C54        1.0     0.638711      0.683009      0.597750     Biso  1.000000 C
   C55        1.0     0.166543      0.224898      0.368935     Biso  1.000000 C
   C56        1.0     0.775102      0.941644      0.368935     Biso  1.000000 C
   C57        1.0     0.058356      0.833457      0.368935     Biso  1.000000 C
   C58        1.0     0.775102      0.833457      0.868935     Biso  1.000000 C
   C59        1.0     0.058356      0.224898      0.868935     Biso  1.000000 C
   C60        1.0     0.166543      0.941644      0.868935     Biso  1.000000 C
   C61        1.0     0.833209      0.558232      0.702268     Biso  1.000000 C
   C62        1.0     0.441768      0.274977      0.702268     Biso  1.000000 C
   C63        1.0     0.725023      0.166791      0.702268     Biso  1.000000 C
   C64        1.0     0.441768      0.166791      0.202268     Biso  1.000000 C
   C65        1.0     0.725023      0.558232      0.202268     Biso  1.000000 C
   C66        1.0     0.833209      0.274977      0.202268     Biso  1.000000 C
   C67        1.0     0.499876      0.891565      0.035602     Biso  1.000000 C
   C68        1.0     0.108435      0.608311      0.035602     Biso  1.000000 C
   C69        1.0     0.391689      0.500124      0.035602     Biso  1.000000 C
   C70        1.0     0.108435      0.500124      0.535602     Biso  1.000000 C
   C71        1.0     0.391689      0.891565      0.535602     Biso  1.000000 C
   C72        1.0     0.499876      0.608311      0.535602     Biso  1.000000 C
   C73        1.0     0.167160      0.104910      0.181004     Biso  1.000000 C
   C74        1.0     0.895090      0.062250      0.181004     Biso  1.000000 C
   C75        1.0     0.937750      0.832840      0.181004     Biso  1.000000 C
   C76        1.0     0.895090      0.832840      0.681004     Biso  1.000000 C
   C77        1.0     0.937750      0.104910      0.681004     Biso  1.000000 C
   C78        1.0     0.167160      0.062250      0.681004     Biso  1.000000 C
   C79        1.0     0.833826      0.438243      0.514337     Biso  1.000000 C
   C80        1.0     0.561757      0.395583      0.514337     Biso  1.000000 C
   C81        1.0     0.604417      0.166174      0.514337     Biso  1.000000 C
   C82        1.0     0.561757      0.166174      0.014337     Biso  1.000000 C
   C83        1.0     0.604417      0.438243      0.014337     Biso  1.000000 C
   C84        1.0     0.833826      0.395583      0.014337     Biso  1.000000 C
   C85        1.0     0.500493      0.771576      0.847670     Biso  1.000000 C
   C86        1.0     0.228424      0.728917      0.847670     Biso  1.000000 C
   C87        1.0     0.271083      0.499507      0.847670     Biso  1.000000 C
   C88        1.0     0.228424      0.499507      0.347670     Biso  1.000000 C
   C89        1.0     0.271083      0.771576      0.347670     Biso  1.000000 C
   C90        1.0     0.500493      0.728917      0.347670     Biso  1.000000 C
   C91        1.0     0.233370      0.164779      0.252145     Biso  1.000000 C
   C92        1.0     0.835221      0.068591      0.252145     Biso  1.000000 C
   C93        1.0     0.931409      0.766630      0.252145     Biso  1.000000 C
   C94        1.0     0.835221      0.766630      0.752145     Biso  1.000000 C
   C95        1.0     0.931409      0.164779      0.752145     Biso  1.000000 C
   C96        1.0     0.233370      0.068591      0.752145     Biso  1.000000 C
   C97        1.0     0.900037      0.498112      0.585478     Biso  1.000000 C
   C98        1.0     0.501888      0.401925      0.585478     Biso  1.000000 C
   C99        1.0     0.598075      0.099963      0.585478     Biso  1.000000 C
   C100       1.0     0.501888      0.099963      0.085478     Biso  1.000000 C
   C101       1.0     0.598075      0.498112      0.085478     Biso  1.000000 C
   C102       1.0     0.900037      0.401925      0.085478     Biso  1.000000 C
   C103       1.0     0.566704      0.831446      0.918812     Biso  1.000000 C
   C104       1.0     0.168554      0.735258      0.918812     Biso  1.000000 C
   C105       1.0     0.264742      0.433296      0.918812     Biso  1.000000 C
   C106       1.0     0.168554      0.433296      0.418812     Biso  1.000000 C
   C107       1.0     0.264742      0.831446      0.418812     Biso  1.000000 C
   C108       1.0     0.566704      0.735258      0.418812     Biso  1.000000 C
   C109       1.0     0.100942      0.105815      0.201308     Biso  1.000000 C
   C110       1.0     0.894185     -0.004873      0.201308     Biso  1.000000 C
   C111       1.0     0.004873      0.899058      0.201308     Biso  1.000000 C
   C112       1.0     0.894185      0.899058      0.701308     Biso  1.000000 C
   C113       1.0     0.004873      0.105815      0.701308     Biso  1.000000 C
   C114       1.0     0.100942     -0.004873      0.701308     Biso  1.000000 C
   C115       1.0     0.767608      0.439148      0.534641     Biso  1.000000 C
   C116       1.0     0.560852      0.328460      0.534641     Biso  1.000000 C
   C117       1.0     0.671540      0.232392      0.534641     Biso  1.000000 C
   C118       1.0     0.560852      0.232392      0.034641     Biso  1.000000 C
   C119       1.0     0.671540      0.439148      0.034641     Biso  1.000000 C
   C120       1.0     0.767608      0.328460      0.034641     Biso  1.000000 C
   C121       1.0     0.434275      0.772482      0.867975     Biso  1.000000 C
   C122       1.0     0.227518      0.661793      0.867975     Biso  1.000000 C
   C123       1.0     0.338207      0.565725      0.867975     Biso  1.000000 C
   C124       1.0     0.227518      0.565725      0.367975     Biso  1.000000 C
   C125       1.0     0.338207      0.772482      0.367975     Biso  1.000000 C
   C126       1.0     0.434275      0.661793      0.367975     Biso  1.000000 C
   C127       1.0     0.100649      0.166015      0.294532     Biso  1.000000 C
   C128       1.0     0.833985      0.934634      0.294532     Biso  1.000000 C
   C129       1.0     0.065366      0.899351      0.294532     Biso  1.000000 C
   C130       1.0     0.833985      0.899351      0.794532     Biso  1.000000 C
   C131       1.0     0.065366      0.166015      0.794532     Biso  1.000000 C
   C132       1.0     0.100649      0.934634      0.794532     Biso  1.000000 C
   C133       1.0     0.767316      0.499349      0.627866     Biso  1.000000 C
   C134       1.0     0.500651      0.267967      0.627866     Biso  1.000000 C
   C135       1.0     0.732033      0.232684      0.627866     Biso  1.000000 C
   C136       1.0     0.500651      0.232684      0.127866     Biso  1.000000 C
   C137       1.0     0.732033      0.499349      0.127866     Biso  1.000000 C
   C138       1.0     0.767316      0.267967      0.127866     Biso  1.000000 C
   C139       1.0     0.433983      0.832682      0.961199     Biso  1.000000 C
   C140       1.0     0.167318      0.601300      0.961199     Biso  1.000000 C
   C141       1.0     0.398700      0.566017      0.961199     Biso  1.000000 C
   C142       1.0     0.167318      0.566017      0.461199     Biso  1.000000 C
   C143       1.0     0.398700      0.832682      0.461199     Biso  1.000000 C
   C144       1.0     0.433983      0.601300      0.461199     Biso  1.000000 C
   H1         1.0     0.350297      0.278503      0.389849     Biso  1.000000 H
   H2         1.0     0.721497      0.071794      0.389849     Biso  1.000000 H
   H3         1.0     0.928206      0.649703      0.389849     Biso  1.000000 H
   H4         1.0     0.721497      0.649703      0.889849     Biso  1.000000 H
   H5         1.0     0.928206      0.278503      0.889849     Biso  1.000000 H
   H6         1.0     0.350297      0.071794      0.889849     Biso  1.000000 H
   H7         1.0     0.016964      0.611836      0.723183     Biso  1.000000 H
   H8         1.0     0.388164      0.405128      0.723183     Biso  1.000000 H
   H9         1.0     0.594872      0.983036      0.723183     Biso  1.000000 H
   H10        1.0     0.388164      0.983036      0.223183     Biso  1.000000 H
   H11        1.0     0.594872      0.611836      0.223183     Biso  1.000000 H
   H12        1.0     0.016964      0.405128      0.223183     Biso  1.000000 H
   H13        1.0     0.683631      0.945170      0.056516     Biso  1.000000 H
   H14        1.0     0.054830      0.738461      0.056516     Biso  1.000000 H
   H15        1.0     0.261539      0.316369      0.056516     Biso  1.000000 H
   H16        1.0     0.054830      0.316369      0.556516     Biso  1.000000 H
   H17        1.0     0.261539      0.945170      0.556516     Biso  1.000000 H
   H18        1.0     0.683631      0.738461      0.556516     Biso  1.000000 H
   H19        1.0     0.286486      0.236596      0.728933     Biso  1.000000 H
   H20        1.0     0.763404      0.049890      0.728933     Biso  1.000000 H
   H21        1.0     0.950110      0.713514      0.728933     Biso  1.000000 H
   H22        1.0     0.763404      0.713514      0.228933     Biso  1.000000 H
   H23        1.0     0.950110      0.236596      0.228933     Biso  1.000000 H
   H24        1.0     0.286486      0.049890      0.228933     Biso  1.000000 H
   H25        1.0     0.953153      0.569929      0.062266     Biso  1.000000 H
   H26        1.0     0.430071      0.383224      0.062266     Biso  1.000000 H
   H27        1.0     0.616776      0.046847      0.062266     Biso  1.000000 H
   H28        1.0     0.430071      0.046847      0.562266     Biso  1.000000 H
   H29        1.0     0.616776      0.569929      0.562266     Biso  1.000000 H
   H30        1.0     0.953153      0.383224      0.562266     Biso  1.000000 H
   H31        1.0     0.619820      0.903263      0.395599     Biso  1.000000 H
   H32        1.0     0.096737      0.716557      0.395599     Biso  1.000000 H
   H33        1.0     0.283443      0.380180      0.395599     Biso  1.000000 H
   H34        1.0     0.096737      0.380180      0.895599     Biso  1.000000 H
   H35        1.0     0.283443      0.903263      0.895599     Biso  1.000000 H
   H36        1.0     0.619820      0.716557      0.895599     Biso  1.000000 H
   H37        1.0     0.259258      0.303891      0.712189     Biso  1.000000 H
   H38        1.0     0.696109      0.955367      0.712189     Biso  1.000000 H
   H39        1.0     0.044633      0.740742      0.712189     Biso  1.000000 H
   H40        1.0     0.696109      0.740742      0.212189     Biso  1.000000 H
   H41        1.0     0.044633      0.303891      0.212189     Biso  1.000000 H
   H42        1.0     0.259258      0.955367      0.212189     Biso  1.000000 H
   H43        1.0     0.925925      0.637224      0.045522     Biso  1.000000 H
   H44        1.0     0.362776      0.288701      0.045522     Biso  1.000000 H
   H45        1.0     0.711299      0.074075      0.045522     Biso  1.000000 H
   H46        1.0     0.362776      0.074075      0.545522     Biso  1.000000 H
   H47        1.0     0.711299      0.637224      0.545522     Biso  1.000000 H
   H48        1.0     0.925925      0.288701      0.545522     Biso  1.000000 H
   H49        1.0     0.592592      0.970558      0.378856     Biso  1.000000 H
   H50        1.0     0.029442      0.622034      0.378856     Biso  1.000000 H
   H51        1.0     0.377966      0.407408      0.378856     Biso  1.000000 H
   H52        1.0     0.029442      0.407408      0.878856     Biso  1.000000 H
   H53        1.0     0.377966      0.970558      0.878856     Biso  1.000000 H
   H54        1.0     0.592592      0.622034      0.878856     Biso  1.000000 H
   H55        1.0     0.285084      0.164270      0.235544     Biso  1.000000 H
   H56        1.0     0.835730      0.120814      0.235544     Biso  1.000000 H
   H57        1.0     0.879186      0.714916      0.235544     Biso  1.000000 H
   H58        1.0     0.835730      0.714916      0.735544     Biso  1.000000 H
   H59        1.0     0.879186      0.164270      0.735544     Biso  1.000000 H
   H60        1.0     0.285084      0.120814      0.735544     Biso  1.000000 H
   H61        1.0     0.951751      0.497604      0.568877     Biso  1.000000 H
   H62        1.0     0.502396      0.454147      0.568877     Biso  1.000000 H
   H63        1.0     0.545853      0.048249      0.568877     Biso  1.000000 H
   H64        1.0     0.502396      0.048249      0.068877     Biso  1.000000 H
   H65        1.0     0.545853      0.497604      0.068877     Biso  1.000000 H
   H66        1.0     0.951751      0.454147      0.068877     Biso  1.000000 H
   H67        1.0     0.618418      0.830937      0.902211     Biso  1.000000 H
   H68        1.0     0.169063      0.787481      0.902211     Biso  1.000000 H
   H69        1.0     0.212519      0.381582      0.902211     Biso  1.000000 H
   H70        1.0     0.169063      0.381582      0.402211     Biso  1.000000 H
   H71        1.0     0.212519      0.830937      0.402211     Biso  1.000000 H
   H72        1.0     0.618418      0.787481      0.402211     Biso  1.000000 H
   H73        1.0     0.050039      0.060765      0.140792     Biso  1.000000 H
   H74        1.0     0.939235     -0.010725      0.140792     Biso  1.000000 H
   H75        1.0     0.010725      0.949961      0.140792     Biso  1.000000 H
   H76        1.0     0.939235      0.949961      0.640792     Biso  1.000000 H
   H77        1.0     0.010725      0.060765      0.640792     Biso  1.000000 H
   H78        1.0     0.050039     -0.010725      0.640792     Biso  1.000000 H
   H79        1.0     0.716706      0.394098      0.474125     Biso  1.000000 H
   H80        1.0     0.605902      0.322608      0.474125     Biso  1.000000 H
   H81        1.0     0.677392      0.283294      0.474125     Biso  1.000000 H
   H82        1.0     0.605902      0.283294      0.974125     Biso  1.000000 H
   H83        1.0     0.677392      0.394098      0.974125     Biso  1.000000 H
   H84        1.0     0.716706      0.322608      0.974125     Biso  1.000000 H
   H85        1.0     0.383373      0.727431      0.807458     Biso  1.000000 H
   H86        1.0     0.272569      0.655941      0.807458     Biso  1.000000 H
   H87        1.0     0.344059      0.616627      0.807458     Biso  1.000000 H
   H88        1.0     0.272569      0.616627      0.307458     Biso  1.000000 H
   H89        1.0     0.344059      0.727431      0.307458     Biso  1.000000 H
   H90        1.0     0.383373      0.655941      0.307458     Biso  1.000000 H
   H91        1.0     0.049284      0.166873      0.309881     Biso  1.000000 H
   H92        1.0     0.833127      0.882411      0.309881     Biso  1.000000 H
   H93        1.0     0.117589      0.950716      0.309881     Biso  1.000000 H
   H94        1.0     0.833127      0.950716      0.809881     Biso  1.000000 H
   H95        1.0     0.117589      0.166873      0.809881     Biso  1.000000 H
   H96        1.0     0.049284      0.882411      0.809881     Biso  1.000000 H
   H97        1.0     0.715950      0.500207      0.643214     Biso  1.000000 H
   H98        1.0     0.499793      0.215744      0.643214     Biso  1.000000 H
   H99        1.0     0.784256      0.284050      0.643214     Biso  1.000000 H
   H100       1.0     0.499793      0.284050      0.143214     Biso  1.000000 H
   H101       1.0     0.784256      0.500207      0.143214     Biso  1.000000 H
   H102       1.0     0.715950      0.215744      0.143214     Biso  1.000000 H
   H103       1.0     0.382617      0.833540      0.976548     Biso  1.000000 H
   H104       1.0     0.166460      0.549077      0.976548     Biso  1.000000 H
   H105       1.0     0.450923      0.617383      0.976548     Biso  1.000000 H
   H106       1.0     0.166460      0.617383      0.476548     Biso  1.000000 H
   H107       1.0     0.450923      0.833540      0.476548     Biso  1.000000 H
   H108       1.0     0.382617      0.549077      0.476548     Biso  1.000000 H
   H109       1.0     0.167361      0.058177      0.109883     Biso  1.000000 H
   H110       1.0     0.941823      0.109184      0.109883     Biso  1.000000 H
   H111       1.0     0.890816      0.832639      0.109883     Biso  1.000000 H
   H112       1.0     0.941823      0.832639      0.609883     Biso  1.000000 H
   H113       1.0     0.890816      0.058177      0.609883     Biso  1.000000 H
   H114       1.0     0.167361      0.109184      0.609883     Biso  1.000000 H
   H115       1.0     0.834028      0.391511      0.443216     Biso  1.000000 H
   H116       1.0     0.608489      0.442517      0.443216     Biso  1.000000 H
   H117       1.0     0.557483      0.165972      0.443216     Biso  1.000000 H
   H118       1.0     0.608489      0.165972      0.943216     Biso  1.000000 H
   H119       1.0     0.557483      0.391511      0.943216     Biso  1.000000 H
   H120       1.0     0.834028      0.442517      0.943216     Biso  1.000000 H
   H121       1.0     0.500694      0.724844      0.776549     Biso  1.000000 H
   H122       1.0     0.275156      0.775850      0.776549     Biso  1.000000 H
   H123       1.0     0.224150      0.499306      0.776549     Biso  1.000000 H
   H124       1.0     0.275156      0.499306      0.276549     Biso  1.000000 H
   H125       1.0     0.224150      0.724844      0.276549     Biso  1.000000 H
   H126       1.0     0.500694      0.775850      0.276549     Biso  1.000000 H
   H127       1.0     0.165486      0.270759      0.444859     Biso  1.000000 H
   H128       1.0     0.729241      0.894727      0.444859     Biso  1.000000 H
   H129       1.0     0.105273      0.834514      0.444859     Biso  1.000000 H
   H130       1.0     0.729241      0.834514      0.944859     Biso  1.000000 H
   H131       1.0     0.105273      0.270759      0.944859     Biso  1.000000 H
   H132       1.0     0.165486      0.894727      0.944859     Biso  1.000000 H
   H133       1.0     0.832153      0.604093      0.778192     Biso  1.000000 H
   H134       1.0     0.395907      0.228060      0.778192     Biso  1.000000 H
   H135       1.0     0.771940      0.167847      0.778192     Biso  1.000000 H
   H136       1.0     0.395907      0.167847      0.278192     Biso  1.000000 H
   H137       1.0     0.771940      0.604093      0.278192     Biso  1.000000 H
   H138       1.0     0.832153      0.228060      0.278192     Biso  1.000000 H
   H139       1.0     0.498820      0.937426      0.111526     Biso  1.000000 H
   H140       1.0     0.062574      0.561393      0.111526     Biso  1.000000 H
   H141       1.0     0.438607      0.501180      0.111526     Biso  1.000000 H
   H142       1.0     0.062574      0.501180      0.611526     Biso  1.000000 H
   H143       1.0     0.438607      0.937426      0.611526     Biso  1.000000 H
   H144       1.0     0.498820      0.561393      0.611526     Biso  1.000000 H

# Number_of_total_atoms: 288
# Number_of_atom_type: 2
# Name_of_each_atom: C H 
# Number_of_each_atom: 144 144
# Created_by: Lihua Chen (lihua.chen@mse.gatech.edu)
# Tool: VASP
# K-points: 1 1 4
# Pseudopotential: PBE-HSE06
# Material_class: MC_Pol
# Geometry_class: GC_cry
# Bandgap_(eV): 4.90 
