#======================================================================

# Note: Crystal region of syndiotactic polystyrene
# Common_name: Perfect crystal

#----------------------------------------------------------------------

data_Crystal

_chemical_name_common                  'syndiotactic polystyrene               '
_cell_length_a                         8.08663
_cell_length_b                         29.22554
_cell_length_c                         5.10729
_cell_angle_alpha                      90.00022
_cell_angle_beta                       90.00056
_cell_angle_gamma                      90.00174
_space_group_name_H-M_alt              'P 1'
_space_group_IT_number                 1

loop_
_space_group_symop_operation_xyz
   'x, y, z'

loop_
   _atom_site_label
   _atom_site_occupancy
   _atom_site_fract_x
   _atom_site_fract_y
   _atom_site_fract_z
   _atom_site_adp_type
   _atom_site_B_iso_or_equiv
   _atom_site_type_symbol
   C1         1.0     0.159898      0.065668      0.999453     Biso  1.000000 C
   C2         1.0     0.840146      0.934341      0.000541     Biso  1.000000 C
   C3         1.0     0.659838      0.434341      0.000552     Biso  1.000000 C
   C4         1.0     0.340067      0.565668      0.999453     Biso  1.000000 C
   C5         1.0     0.840145      0.934341      0.499448     Biso  1.000000 C
   C6         1.0     0.159899      0.065668      0.500544     Biso  1.000000 C
   C7         1.0     0.340067      0.565668      0.500544     Biso  1.000000 C
   C8         1.0     0.659838      0.434341      0.499460     Biso  1.000000 C
   C9         1.0     0.566614      0.105354      0.250000     Biso  1.000000 C
   C10        1.0     0.433431      0.894656      0.749989     Biso  1.000000 C
   C11        1.0     0.066544      0.394656      0.750007     Biso  1.000000 C
   C12        1.0     0.933360      0.605353      0.250001     Biso  1.000000 C
   C13        1.0     0.808801      0.056921      0.249995     Biso  1.000000 C
   C14        1.0     0.191242      0.943089      0.749997     Biso  1.000000 C
   C15        1.0     0.308743      0.443089      0.750002     Biso  1.000000 C
   C16        1.0     0.691162      0.556921      0.250002     Biso  1.000000 C
   C17        1.0     0.840129      0.138860      0.250000     Biso  1.000000 C
   C18        1.0     0.159918      0.861150      0.749994     Biso  1.000000 C
   C19        1.0     0.340050      0.361150      0.750004     Biso  1.000000 C
   C20        1.0     0.659854      0.638859      0.250002     Biso  1.000000 C
   C21        1.0     0.636683      0.061604      0.249996     Biso  1.000000 C
   C22        1.0     0.363360      0.938407      0.749993     Biso  1.000000 C
   C23        1.0     0.136624      0.438407      0.750005     Biso  1.000000 C
   C24        1.0     0.863281      0.561603      0.250002     Biso  1.000000 C
   C25        1.0     0.100584      0.090085      0.249998     Biso  1.000000 C
   C26        1.0     0.899460      0.909924      0.749995     Biso  1.000000 C
   C27        1.0     0.600517      0.409924      0.750004     Biso  1.000000 C
   C28        1.0     0.399388      0.590085      0.250000     Biso  1.000000 C
   C29        1.0     0.668526      0.143947      0.250001     Biso  1.000000 C
   C30        1.0     0.331521      0.856064      0.749990     Biso  1.000000 C
   C31        1.0     0.168445      0.356064      0.750007     Biso  1.000000 C
   C32        1.0     0.831458      0.643946      0.250002     Biso  1.000000 C
   C33        1.0     0.912769      0.095361      0.249997     Biso  1.000000 C
   C34        1.0     0.087276      0.904648      0.749996     Biso  1.000000 C
   C35        1.0     0.412701      0.404648      0.750003     Biso  1.000000 C
   C36        1.0     0.587204      0.595361      0.250002     Biso  1.000000 C
   C37        1.0     0.303980      0.231615      0.750003     Biso  1.000000 C
   C38        1.0     0.696037      0.768396      0.249995     Biso  1.000000 C
   C39        1.0     0.803909      0.268396      0.250003     Biso  1.000000 C
   C40        1.0     0.195995      0.731613      0.750008     Biso  1.000000 C
   C41        1.0     0.179571      0.141225      0.750001     Biso  1.000000 C
   C42        1.0     0.820461      0.858784      0.249992     Biso  1.000000 C
   C43        1.0     0.679504      0.358784      0.250005     Biso  1.000000 C
   C44        1.0     0.320400      0.641225      0.750001     Biso  1.000000 C
   C45        1.0     0.072187      0.179043      0.750003     Biso  1.000000 C
   C46        1.0     0.927839      0.820964      0.249995     Biso  1.000000 C
   C47        1.0     0.572118      0.320964      0.250003     Biso  1.000000 C
   C48        1.0     0.427787      0.679045      0.750001     Biso  1.000000 C
   C49        1.0     0.133129      0.223842      0.750005     Biso  1.000000 C
   C50        1.0     0.866890      0.776167      0.249997     Biso  1.000000 C
   C51        1.0     0.633058      0.276167      0.250002     Biso  1.000000 C
   C52        1.0     0.366846      0.723842      0.750005     Biso  1.000000 C
   C53        1.0     0.111048      0.092354      0.749999     Biso  1.000000 C
   C54        1.0     0.888992      0.907654      0.249994     Biso  1.000000 C
   C55        1.0     0.610984      0.407654      0.250004     Biso  1.000000 C
   C56        1.0     0.388920      0.592354      0.750000     Biso  1.000000 C
   C57        1.0     0.412606      0.194333      0.750001     Biso  1.000000 C
   C58        1.0     0.587418      0.805679      0.249991     Biso  1.000000 C
   C59        1.0     0.912537      0.305679      0.250005     Biso  1.000000 C
   C60        1.0     0.087368      0.694330      0.750006     Biso  1.000000 C
   C61        1.0     0.350681      0.149642      0.750000     Biso  1.000000 C
   C62        1.0     0.649351      0.850369      0.249990     Biso  1.000000 C
   C63        1.0     0.850613      0.350369      0.250006     Biso  1.000000 C
   C64        1.0     0.149292      0.649640      0.750003     Biso  1.000000 C
   H1         1.0     0.895377      0.968567      0.491960     Biso  1.000000 H
   H2         1.0     0.294351      0.060644      0.494503     Biso  1.000000 H
   H3         1.0     0.395291      0.531442      0.508034     Biso  1.000000 H
   H4         1.0     0.794290      0.439365      0.505506     Biso  1.000000 H
   H5         1.0     0.104669      0.031441      0.991965     Biso  1.000000 H
   H6         1.0     0.705695      0.939365      0.994494     Biso  1.000000 H
   H7         1.0     0.604615      0.468567      0.008040     Biso  1.000000 H
   H8         1.0     0.205615      0.560644      0.005495     Biso  1.000000 H
   H9         1.0     0.705694      0.939365      0.505491     Biso  1.000000 H
   H10        1.0     0.104670      0.031441      0.508030     Biso  1.000000 H
   H11        1.0     0.205615      0.560643      0.494498     Biso  1.000000 H
   H12        1.0     0.604615      0.468567      0.491971     Biso  1.000000 H
   H13        1.0     0.294350      0.060644      0.005498     Biso  1.000000 H
   H14        1.0     0.895378      0.968567      0.008032     Biso  1.000000 H
   H15        1.0     0.794291      0.439364      0.994510     Biso  1.000000 H
   H16        1.0     0.395290      0.531442      0.991963     Biso  1.000000 H
   H17        1.0     0.565834      0.890119      0.749986     Biso  1.000000 H
   H18        1.0     0.846209      0.875412      0.749994     Biso  1.000000 H
   H19        1.0     0.647278      0.733911      0.249996     Biso  1.000000 H
   H20        1.0     0.147242      0.766098      0.750012     Biso  1.000000 H
   H21        1.0     0.939559      0.173357      0.750004     Biso  1.000000 H
   H22        1.0     0.439491      0.326649      0.250002     Biso  1.000000 H
   H23        1.0     0.975816      0.095087      0.749996     Biso  1.000000 H
   H24        1.0     0.024225      0.904920      0.249997     Biso  1.000000 H
   H25        1.0     0.475752      0.404920      0.250002     Biso  1.000000 H
   H26        1.0     0.524152      0.595089      0.750002     Biso  1.000000 H
   H27        1.0     0.453290      0.752238      0.750005     Biso  1.000000 H
   H28        1.0     0.560415      0.673361      0.749999     Biso  1.000000 H
   H29        1.0     0.954609      0.700072      0.750008     Biso  1.000000 H
   H30        1.0     0.063011      0.621241      0.750002     Biso  1.000000 H
   H31        1.0     0.441519      0.968712      0.749993     Biso  1.000000 H
   H32        1.0     0.137705      0.976961      0.749998     Biso  1.000000 H
   H33        1.0     0.080142      0.831397      0.749994     Biso  1.000000 H
   H34        1.0     0.386707      0.822306      0.749988     Biso  1.000000 H
   H35        1.0     0.060468      0.826649      0.249997     Biso  1.000000 H
   H36        1.0     0.953329      0.747772      0.250000     Biso  1.000000 H
   H37        1.0     0.454657      0.799937      0.249990     Biso  1.000000 H
   H38        1.0     0.563076      0.878768      0.249988     Biso  1.000000 H
   H39        1.0     0.346145      0.624597      0.250001     Biso  1.000000 H
   H40        1.0     0.580084      0.668613      0.250002     Biso  1.000000 H
   H41        1.0     0.886651      0.677704      0.250001     Biso  1.000000 H
   H42        1.0     0.065764      0.609890      0.250001     Biso  1.000000 H
   H43        1.0     0.941433      0.531298      0.250002     Biso  1.000000 H
   H44        1.0     0.637619      0.523048      0.250003     Biso  1.000000 H
   H45        1.0     0.653760      0.375411      0.750004     Biso  1.000000 H
   H46        1.0     0.934139      0.390120      0.750011     Biso  1.000000 H
   H47        1.0     0.362288      0.476961      0.750000     Biso  1.000000 H
   H48        1.0     0.419820      0.331397      0.750004     Biso  1.000000 H
   H49        1.0     0.058472      0.468712      0.750004     Biso  1.000000 H
   H50        1.0     0.113252      0.322306      0.750010     Biso  1.000000 H
   H51        1.0     0.852660      0.233911      0.250002     Biso  1.000000 H
   H52        1.0     0.546611      0.247772      0.250000     Biso  1.000000 H
   H53        1.0     0.045296      0.299937      0.250007     Biso  1.000000 H
   H54        1.0     0.936893      0.378768      0.250008     Biso  1.000000 H
   H55        1.0     0.352734      0.266100      0.750003     Biso  1.000000 H
   H56        1.0     0.046685      0.252236      0.750006     Biso  1.000000 H
   H57        1.0     0.545365      0.200076      0.750000     Biso  1.000000 H
   H58        1.0     0.436960      0.121244      0.749998     Biso  1.000000 H
   H59        1.0     0.153836      0.124597      0.250000     Biso  1.000000 H
   H60        1.0     0.434211      0.109892      0.250001     Biso  1.000000 H
   H61        1.0     0.862336      0.023049      0.249993     Biso  1.000000 H
   H62        1.0     0.919906      0.168613      0.250002     Biso  1.000000 H
   H63        1.0     0.558523      0.031299      0.249995     Biso  1.000000 H
   H64        1.0     0.613341      0.177705      0.250004     Biso  1.000000 H

# Number_of_total_atoms: 128
# Number_of_atom_type: 2
# Name_of_each_atom: C H 
# Number_of_each_atom: 64 64
# Created_by: Lihua Chen (lihua.chen@mse.gatech.edu)
# Tool: VASP
# K-points: 3 1 6
# Pseudopotential: PBE-HSE06
# Material_class: MC_Pol
# Geometry_class: GC_cry
# Bandgap_(eV): 5.14
